/*--------------------------------*- C++ -*----------------------------------*\
  =========                 |
  \\      /  F ield         | OpenFOAM: The Open Source CFD Toolbox
   \\    /   O peration     | Website:  https://openfoam.org
    \\  /    A nd           | Version:  9
     \\/     M anipulation  |
\*---------------------------------------------------------------------------*/
FoamFile
{
    format      ascii;
    class       dictionary;
    object      blockMeshDict;
}
// * * * * * * * * * * * * * * * * * * * * * * * * * * * * * * * * * * * * * //

convertToMeters 1;

vertices  //diameter 0.25 m largo 1 m
(
    (0.25 0 0) 	 //0
    (0 0.25 0) 	//1
    (-0.25 0 0)	//2
    (0 -0.25 0)	//3 circulo inferior
    
    (0.25 0 1)	//4	
    (0 0.25 1)	//5
    (-0.25 0 1)	//6
    (0 -0.25 1)	//7 circulo superior
    
    (0 0 0)	//8 centro inferior
    (0 0 1)	//9 centro superior
    
    
);

blocks
(
   hex (0 1 8 8 4 5 9 9) (25 25 100) simpleGrading (1 1 1)
   hex (1 2 8 8 5 6 9 9) (25 25 100) simpleGrading (1 1 1)
   hex (2 3 8 8 6 7 9 9) (25 25 100) simpleGrading (1 1 1)
   hex (3 0 8 8 7 4 9 9) (25 25 100) simpleGrading (1 1 1)
   
);

edges
(
  arc 0 1 (0.17677 0.17677 0) 	// (cx r*cos45, cy sin*45 , 0) circulo inferior  
  arc 1 2 (-0.17677 0.17677 0) 	// circulo inferior  
  arc 2 3 (-0.17677 -0.17677 0)	 // circulo inferior  
  arc 3 0 (0.17677 -0.17677 0) 	//circulo inferior  
  
  arc 4 5 (0.17677 0.17677 1) 	//circulo superior
  arc 5 6 (-0.17677 0.17677 1) 	//circulo superior
  arc 6 7 (-0.17677 -0.17677 1) 	//circulo superior
  arc 7 4 (0.17677 -0.17677 1)	//circulo superior
		
);

boundary
(
    walls
    {
        type patch; //type wall
        faces
        (
            (0 8 8 1)
            (1 8 8 2)
            (2 8 8 3)
            (3 8 8 0)
            
        );
    }
    superior
    {
        type patch;
        faces
        (
            (4 9 9 5)
            (5 9 9 6)
            (6 9 9 7)
            (7 9 9 4)
            
            
        );
    }
    inferior
    {
        type patch;
        faces
        (
            (0 1 5 4)
            (1 2 5 6)
            (2 3 7 6)
            (7 4 3 0)
            
            
        );
    
     }
    
);

mergePatchPairs
(
);

// ************************************************************************* //
